<?xml version="1.0" encoding="UTF-8"?>

<!-- generated on 2023-12-11 15:37:31 by Eclipse SUMO netedit Version 1.19.0
<configuration xmlns:xsi="http://www.w3.org/2001/XMLSchema-instance" xsi:noNamespaceSchemaLocation="http://sumo.dlr.de/xsd/neteditConfiguration.xsd">

    <input>
        <sumo-net-file value="/Users/pigeon/code/sumo_ex/net.net.xml"/>
    </input>

    <output>
        <output-file value="/Users/pigeon/code/sumo_ex/net.net.xml"/>
    </output>

    <processing>
        <geometry.min-radius.fix.railways value="false"/>
        <geometry.max-grade.fix value="false"/>
        <offset.disable-normalization value="true"/>
        <lefthand value="1"/>
    </processing>

    <junctions>
        <no-turnarounds value="true"/>
        <junctions.corner-detail value="5"/>
        <junctions.limit-turn-speed value="5.50"/>
        <rectangular-lane-cut value="0"/>
    </junctions>

    <pedestrian>
        <walkingareas value="0"/>
    </pedestrian>

</configuration>
-->

<net version="1.16" junctionCornerDetail="5" lefthand="true" limitTurnSpeed="5.50" xmlns:xsi="http://www.w3.org/2001/XMLSchema-instance" xsi:noNamespaceSchemaLocation="http://sumo.dlr.de/xsd/net_file.xsd">

    <location netOffset="-570465.30,-3875253.80" convBoundary="0.00,0.00,1629.18,2028.10" origBoundary="135.772460,35.017439,135.790324,35.035696" projParameter="+proj=utm +zone=53 +ellps=WGS84 +datum=WGS84 +units=m +no_defs"/>

    <type id="highway.cycleway" priority="1" numLanes="1" speed="5.56" allow="bicycle" oneway="0" width="2.00"/>
    <type id="highway.footway" priority="1" numLanes="1" speed="2.78" allow="pedestrian" oneway="1" width="2.00"/>
    <type id="highway.path" priority="1" numLanes="1" speed="5.56" allow="pedestrian bicycle" oneway="0" width="2.00"/>
    <type id="highway.pedestrian" priority="1" numLanes="1" speed="2.78" allow="pedestrian" oneway="1" width="2.00"/>
    <type id="highway.primary" priority="12" numLanes="2" speed="27.78" disallow="tram rail_urban rail rail_electric rail_fast ship" oneway="0"/>
    <type id="highway.residential" priority="3" numLanes="1" speed="13.89" disallow="tram rail_urban rail rail_electric rail_fast ship" oneway="0"/>
    <type id="highway.secondary" priority="11" numLanes="1" speed="27.78" disallow="tram rail_urban rail rail_electric rail_fast ship" oneway="0"/>
    <type id="highway.service" priority="1" numLanes="1" speed="5.56" allow="pedestrian delivery bicycle" oneway="0"/>
    <type id="highway.steps" priority="1" numLanes="1" speed="1.39" allow="pedestrian" oneway="1" width="2.00"/>
    <type id="highway.tertiary" priority="10" numLanes="1" speed="22.22" disallow="tram rail_urban rail rail_electric rail_fast ship" oneway="0"/>
    <type id="highway.unclassified" priority="4" numLanes="1" speed="13.89" disallow="tram rail_urban rail rail_electric rail_fast ship" oneway="0"/>

    <edge id=":10695395482_0" function="internal">
        <lane id=":10695395482_0_0" index="0" allow="pedestrian delivery bicycle" speed="5.56" length="5.00" shape="919.31,1361.52 918.63,1356.57"/>
    </edge>
    <edge id=":10695395482_1" function="internal">
        <lane id=":10695395482_1_0" index="0" allow="pedestrian delivery bicycle" speed="3.65" length="4.67" shape="919.31,1361.52 918.35,1360.44 917.51,1360.15 916.77,1360.66 916.14,1361.96"/>
    </edge>
    <edge id=":10695395482_2" function="internal">
        <lane id=":10695395482_2_0" index="0" allow="pedestrian delivery bicycle" speed="5.56" length="5.00" shape="915.46,1357.00 916.14,1361.96"/>
    </edge>
    <edge id=":10695395482_3" function="internal">
        <lane id=":10695395482_3_0" index="0" allow="pedestrian delivery bicycle" speed="3.65" length="4.67" shape="915.46,1357.00 916.41,1358.08 917.26,1358.37 918.00,1357.86 918.63,1356.57"/>
    </edge>
    <edge id=":10820681820_0" function="internal">
        <lane id=":10820681820_0_0" index="0" allow="pedestrian delivery bicycle" speed="5.05" length="5.02" shape="940.50,1189.16 940.20,1190.49 939.55,1191.41 938.53,1191.92 937.15,1192.02"/>
    </edge>
    <edge id=":10820681820_1" function="internal">
        <lane id=":10820681820_1_0" index="0" allow="pedestrian delivery bicycle" speed="5.56" length="9.40" shape="940.50,1189.16 939.79,1198.53"/>
    </edge>
    <edge id=":10820681820_2" function="internal">
        <lane id=":10820681820_2_0" index="0" allow="pedestrian delivery bicycle" speed="3.65" length="4.67" shape="940.50,1189.16 941.21,1190.41 941.97,1190.87 942.80,1190.53 943.69,1189.40"/>
    </edge>
    <edge id=":10820681820_3" function="internal">
        <lane id=":10820681820_3_0" index="0" allow="pedestrian delivery bicycle" speed="5.56" length="9.40" shape="942.98,1198.77 943.69,1189.40"/>
    </edge>
    <edge id=":10820681820_4" function="internal">
        <lane id=":10820681820_4_0" index="0" allow="pedestrian delivery bicycle" speed="5.56" length="10.18" shape="942.98,1198.77 942.80,1195.98 941.76,1193.93 939.88,1192.61 937.15,1192.02"/>
    </edge>
    <edge id=":10820681820_5" function="internal">
        <lane id=":10820681820_5_0" index="0" allow="pedestrian delivery bicycle" speed="3.65" length="4.67" shape="942.98,1198.77 942.27,1197.51 941.51,1197.05 940.68,1197.39 939.79,1198.53"/>
    </edge>
    <edge id=":10820681820_6" function="internal">
        <lane id=":10820681820_6_0" index="0" allow="pedestrian delivery bicycle" speed="5.04" length="5.00" shape="936.93,1195.21 938.27,1195.50 939.19,1196.15 939.70,1197.16 939.79,1198.53"/>
    </edge>
    <edge id=":10820681820_7" function="internal">
        <lane id=":10820681820_7_0" index="0" allow="pedestrian delivery bicycle" speed="5.56" length="10.16" shape="936.93,1195.21 939.71,1195.02 941.76,1193.98 943.09,1192.11 943.69,1189.40"/>
    </edge>
    <edge id=":10820681820_8" function="internal">
        <lane id=":10820681820_8_0" index="0" allow="pedestrian delivery bicycle" speed="3.65" length="4.67" shape="936.93,1195.21 938.18,1194.50 938.64,1193.73 938.29,1192.90 937.15,1192.02"/>
    </edge>
    <edge id=":10855960756_0" function="internal">
        <lane id=":10855960756_0_0" index="0" disallow="tram rail_urban rail rail_electric rail_fast ship" speed="27.78" length="3.03" shape="650.73,1390.63 650.18,1387.65"/>
        <lane id=":10855960756_0_1" index="1" disallow="tram rail_urban rail rail_electric rail_fast ship" speed="27.78" length="3.03" shape="647.58,1391.20 647.03,1388.22"/>
    </edge>
    <edge id=":10855960757_0" function="internal">
        <lane id=":10855960757_0_0" index="0" disallow="tram rail_urban rail rail_electric rail_fast ship" speed="27.78" length="4.97" shape="638.40,1390.22 639.34,1395.01"/>
        <lane id=":10855960757_0_1" index="1" disallow="tram rail_urban rail rail_electric rail_fast ship" speed="27.78" length="4.97" shape="641.54,1389.60 642.52,1394.56"/>
    </edge>
    <edge id=":10855960760_0" function="internal">
        <lane id=":10855960760_0_0" index="0" disallow="tram rail_urban rail rail_electric rail_fast ship" speed="27.78" length="5.38" shape="642.00,1411.05 642.75,1416.37"/>
        <lane id=":10855960760_0_1" index="1" disallow="tram rail_urban rail rail_electric rail_fast ship" speed="27.78" length="5.38" shape="645.17,1410.60 645.92,1415.93"/>
    </edge>
    <edge id=":10855960761_0" function="internal">
        <lane id=":10855960761_0_0" index="0" disallow="tram rail_urban rail rail_electric rail_fast ship" speed="27.78" length="5.30" shape="654.62,1414.11 653.81,1408.88"/>
        <lane id=":10855960761_0_1" index="1" disallow="tram rail_urban rail rail_electric rail_fast ship" speed="27.78" length="5.30" shape="651.45,1414.60 650.65,1409.37"/>
    </edge>
    <edge id=":10861718927_0" function="internal">
        <lane id=":10861718927_0_0" index="0" allow="pedestrian delivery bicycle" speed="5.56" length="9.41" shape="763.87,1051.10 754.49,1050.21"/>
    </edge>
    <edge id=":10861718927_1" function="internal">
        <lane id=":10861718927_1_0" index="0" allow="pedestrian delivery bicycle" speed="5.56" length="10.47" shape="763.87,1051.10 760.97,1051.24 758.88,1052.28 757.58,1054.23 757.07,1057.08"/>
    </edge>
    <edge id=":10861718927_2" function="internal">
        <lane id=":10861718927_2_0" index="0" allow="pedestrian delivery bicycle" speed="3.65" length="4.67" shape="763.87,1051.10 762.60,1051.78 762.12,1052.54 762.44,1053.38 763.56,1054.29"/>
    </edge>
    <edge id=":10861718927_3" function="internal">
        <lane id=":10861718927_3_0" index="0" allow="pedestrian delivery bicycle" speed="4.98" length="5.08" shape="760.27,1057.19 760.52,1055.80 761.15,1054.86 762.16,1054.35 763.56,1054.29"/>
    </edge>
    <edge id=":10861718927_4" function="internal">
        <lane id=":10861718927_4_0" index="0" allow="pedestrian delivery bicycle" speed="5.56" length="10.19" shape="760.27,1057.19 759.99,1054.35 758.93,1052.24 757.10,1050.86 754.49,1050.21"/>
    </edge>
    <edge id=":10861718927_5" function="internal">
        <lane id=":10861718927_5_0" index="0" allow="pedestrian delivery bicycle" speed="3.65" length="4.67" shape="760.27,1057.19 759.51,1055.96 758.72,1055.53 757.91,1055.91 757.07,1057.08"/>
    </edge>
    <edge id=":10861718927_6" function="internal">
        <lane id=":10861718927_6_0" index="0" allow="pedestrian delivery bicycle" speed="5.25" length="5.26" shape="754.19,1053.40 755.49,1053.74 756.41,1054.46 756.93,1055.58 757.07,1057.08"/>
    </edge>
    <edge id=":10861718927_7" function="internal">
        <lane id=":10861718927_7_0" index="0" allow="pedestrian delivery bicycle" speed="5.56" length="9.41" shape="754.19,1053.40 763.56,1054.29"/>
    </edge>
    <edge id=":10861718927_8" function="internal">
        <lane id=":10861718927_8_0" index="0" allow="pedestrian delivery bicycle" speed="3.65" length="4.67" shape="754.19,1053.40 755.46,1052.72 755.93,1051.96 755.61,1051.12 754.49,1050.21"/>
    </edge>
    <edge id=":10861718928_0" function="internal">
        <lane id=":10861718928_0_0" index="0" allow="pedestrian delivery bicycle" speed="5.00" length="5.05" shape="754.87,1125.47 754.62,1126.84 754.00,1127.78 752.99,1128.30 751.61,1128.40"/>
    </edge>
    <edge id=":10861718928_1" function="internal">
        <lane id=":10861718928_1_0" index="0" allow="pedestrian delivery bicycle" speed="5.56" length="10.17" shape="754.87,1125.47 755.16,1128.28 756.24,1130.35 758.10,1131.69 760.75,1132.28"/>
    </edge>
    <edge id=":10861718928_2" function="internal">
        <lane id=":10861718928_2_0" index="0" allow="pedestrian delivery bicycle" speed="3.65" length="4.67" shape="754.87,1125.47 755.63,1126.69 756.41,1127.12 757.23,1126.74 758.07,1125.57"/>
    </edge>
    <edge id=":10861718928_3" function="internal">
        <lane id=":10861718928_3_0" index="0" allow="pedestrian delivery bicycle" speed="5.18" length="5.17" shape="760.99,1129.09 759.67,1128.79 758.74,1128.10 758.21,1127.03 758.07,1125.57"/>
    </edge>
    <edge id=":10861718928_4" function="internal">
        <lane id=":10861718928_4_0" index="0" allow="pedestrian delivery bicycle" speed="5.56" length="9.41" shape="760.99,1129.09 751.61,1128.40"/>
    </edge>
    <edge id=":10861718928_5" function="internal">
        <lane id=":10861718928_5_0" index="0" allow="pedestrian delivery bicycle" speed="3.65" length="4.67" shape="760.99,1129.09 759.73,1129.80 759.27,1130.57 759.61,1131.40 760.75,1132.28"/>
    </edge>
    <edge id=":10861718928_6" function="internal">
        <lane id=":10861718928_6_0" index="0" allow="pedestrian delivery bicycle" speed="5.56" length="9.40" shape="751.37,1131.59 760.75,1132.28"/>
    </edge>
    <edge id=":10861718928_7" function="internal">
        <lane id=":10861718928_7_0" index="0" allow="pedestrian delivery bicycle" speed="5.56" length="10.37" shape="751.37,1131.59 754.22,1131.39 756.29,1130.32 757.57,1128.38 758.07,1125.57"/>
    </edge>
    <edge id=":10861718928_8" function="internal">
        <lane id=":10861718928_8_0" index="0" allow="pedestrian delivery bicycle" speed="3.65" length="4.67" shape="751.37,1131.59 752.63,1130.88 753.08,1130.11 752.74,1129.29 751.61,1128.40"/>
    </edge>
    <edge id=":11059924815_0" function="internal">
        <lane id=":11059924815_0_0" index="0" allow="pedestrian delivery bicycle" speed="5.56" length="5.01" shape="826.88,1048.41 826.84,1053.41"/>
    </edge>
    <edge id=":11059924815_1" function="internal">
        <lane id=":11059924815_1_0" index="0" allow="pedestrian delivery bicycle" speed="3.65" length="1.44" shape="826.88,1048.41 827.67,1049.62"/>
    </edge>
    <edge id=":11059924815_4" function="internal">
        <lane id=":11059924815_4_0" index="0" allow="pedestrian delivery bicycle" speed="3.65" length="3.23" shape="827.67,1049.62 828.47,1050.02 829.27,1049.63 830.08,1048.44"/>
    </edge>
    <edge id=":11059924815_2" function="internal">
        <lane id=":11059924815_2_0" index="0" allow="pedestrian delivery bicycle" speed="5.56" length="5.00" shape="830.04,1053.44 830.08,1048.44"/>
    </edge>
    <edge id=":11059924815_3" function="internal">
        <lane id=":11059924815_3_0" index="0" allow="pedestrian delivery bicycle" speed="3.65" length="1.44" shape="830.04,1053.44 829.25,1052.23"/>
    </edge>
    <edge id=":11059924815_5" function="internal">
        <lane id=":11059924815_5_0" index="0" allow="pedestrian delivery bicycle" speed="3.65" length="3.23" shape="829.25,1052.23 828.45,1051.83 827.65,1052.22 826.84,1053.41"/>
    </edge>
    <edge id=":11060841736_0" function="internal">
        <lane id=":11060841736_0_0" index="0" allow="pedestrian delivery bicycle" speed="5.56" length="5.00" shape="683.73,1043.53 678.75,1043.06"/>
    </edge>
    <edge id=":11060841736_1" function="internal">
        <lane id=":11060841736_1_0" index="0" allow="pedestrian delivery bicycle" speed="3.65" length="1.44" shape="683.73,1043.53 682.46,1044.22"/>
    </edge>
    <edge id=":11060841736_4" function="internal">
        <lane id=":11060841736_4_0" index="0" allow="pedestrian delivery bicycle" speed="3.65" length="3.23" shape="682.46,1044.22 681.99,1044.98 682.31,1045.81 683.43,1046.72"/>
    </edge>
    <edge id=":11060841736_2" function="internal">
        <lane id=":11060841736_2_0" index="0" allow="pedestrian delivery bicycle" speed="5.56" length="5.00" shape="678.45,1046.25 683.43,1046.72"/>
    </edge>
    <edge id=":11060841736_3" function="internal">
        <lane id=":11060841736_3_0" index="0" allow="pedestrian delivery bicycle" speed="3.65" length="1.44" shape="678.45,1046.25 679.72,1045.57"/>
    </edge>
    <edge id=":11060841736_5" function="internal">
        <lane id=":11060841736_5_0" index="0" allow="pedestrian delivery bicycle" speed="3.65" length="3.23" shape="679.72,1045.57 680.20,1044.81 679.87,1043.97 678.75,1043.06"/>
    </edge>
    <edge id=":11060841737_0" function="internal">
        <lane id=":11060841737_0_0" index="0" allow="pedestrian delivery bicycle" speed="5.56" length="5.00" shape="688.96,965.62 683.97,965.36"/>
    </edge>
    <edge id=":11060841737_1" function="internal">
        <lane id=":11060841737_1_0" index="0" allow="pedestrian delivery bicycle" speed="3.65" length="4.67" shape="688.96,965.62 687.72,966.36 687.28,967.13 687.64,967.95 688.79,968.82"/>
    </edge>
    <edge id=":11060841737_2" function="internal">
        <lane id=":11060841737_2_0" index="0" allow="pedestrian delivery bicycle" speed="5.56" length="5.00" shape="683.80,968.55 688.79,968.82"/>
    </edge>
    <edge id=":11060841737_3" function="internal">
        <lane id=":11060841737_3_0" index="0" allow="pedestrian delivery bicycle" speed="3.65" length="4.67" shape="683.80,968.55 685.04,967.82 685.48,967.04 685.12,966.22 683.97,965.36"/>
    </edge>
    <edge id=":11060841739_0" function="internal">
        <lane id=":11060841739_0_0" index="0" allow="pedestrian delivery bicycle" speed="5.56" length="5.00" shape="698.06,1005.36 697.62,1010.34"/>
    </edge>
    <edge id=":11060841739_1" function="internal">
        <lane id=":11060841739_1_0" index="0" allow="pedestrian delivery bicycle" speed="3.65" length="4.67" shape="698.06,1005.36 698.75,1006.63 699.51,1007.09 700.34,1006.77 701.25,1005.64"/>
    </edge>
    <edge id=":11060841739_2" function="internal">
        <lane id=":11060841739_2_0" index="0" allow="pedestrian delivery bicycle" speed="5.56" length="4.99" shape="700.81,1010.62 701.25,1005.64"/>
    </edge>
    <edge id=":11060841739_3" function="internal">
        <lane id=":11060841739_3_0" index="0" allow="pedestrian delivery bicycle" speed="3.65" length="4.67" shape="700.81,1010.62 700.12,1009.35 699.36,1008.88 698.53,1009.21 697.62,1010.34"/>
    </edge>
    <edge id=":11271714852_0" function="internal">
        <lane id=":11271714852_0_0" index="0" allow="pedestrian delivery bicycle" speed="4.90" length="5.19" shape="346.00,1163.37 345.73,1164.79 345.07,1165.73 344.02,1166.16 342.57,1166.09"/>
    </edge>
    <edge id=":11271714852_1" function="internal">
        <lane id=":11271714852_1_0" index="0" allow="pedestrian delivery bicycle" speed="7.28" length="10.26" shape="346.00,1163.37 346.23,1166.31 347.19,1168.57 348.87,1170.13 351.27,1171.01"/>
    </edge>
    <edge id=":11271714852_2" function="internal">
        <lane id=":11271714852_2_0" index="0" allow="pedestrian delivery bicycle" speed="3.65" length="4.67" shape="346.00,1163.37 346.75,1164.60 347.53,1165.03 348.35,1164.66 349.20,1163.49"/>
    </edge>
    <edge id=":11271714852_3" function="internal">
        <lane id=":11271714852_3_0" index="0" allow="pedestrian delivery bicycle" speed="5.58" length="5.65" shape="351.87,1167.86 350.64,1167.39 349.79,1166.50 349.31,1165.20 349.20,1163.49"/>
    </edge>
    <edge id=":11271714852_4" function="internal">
        <lane id=":11271714852_4_0" index="0" disallow="tram rail_urban rail rail_electric rail_fast ship" speed="13.89" length="9.47" shape="351.87,1167.86 342.57,1166.09"/>
    </edge>
    <edge id=":11271714852_5" function="internal">
        <lane id=":11271714852_5_0" index="0" disallow="tram rail_urban rail rail_electric rail_fast ship" speed="13.89" length="9.47" shape="341.97,1169.24 351.27,1171.01"/>
    </edge>
    <edge id=":11271714852_6" function="internal">
        <lane id=":11271714852_6_0" index="0" allow="pedestrian delivery bicycle" speed="6.75" length="3.41" shape="341.97,1169.24 345.03,1169.37 345.35,1169.24"/>
    </edge>
    <edge id=":11271714852_7" function="internal">
        <lane id=":11271714852_7_0" index="0" allow="pedestrian delivery bicycle" speed="6.75" length="7.51" shape="345.35,1169.24 347.25,1168.46 348.64,1166.50 349.20,1163.49"/>
    </edge>
    <edge id=":11271714853_0" function="internal">
        <lane id=":11271714853_0_0" index="0" allow="pedestrian delivery bicycle" speed="3.65" length="4.67" shape="350.06,1141.77 349.31,1140.54 348.52,1140.11 347.71,1140.48 346.86,1141.65"/>
    </edge>
    <edge id=":11271714854_0" function="internal">
        <lane id=":11271714854_0_0" index="0" allow="pedestrian delivery bicycle" speed="5.37" length="5.39" shape="286.18,1059.58 285.43,1060.97 284.48,1061.85 283.35,1062.21 282.03,1062.05"/>
    </edge>
    <edge id=":11271714854_1" function="internal">
        <lane id=":11271714854_1_0" index="0" allow="pedestrian delivery bicycle" speed="6.79" length="10.63" shape="286.18,1059.58 285.49,1062.45 285.92,1064.78 287.48,1066.55 290.16,1067.78"/>
    </edge>
    <edge id=":11271714854_2" function="internal">
        <lane id=":11271714854_2_0" index="0" allow="pedestrian delivery bicycle" speed="3.65" length="4.67" shape="286.18,1059.58 286.48,1060.99 287.07,1061.66 287.97,1061.59 289.15,1060.77"/>
    </edge>
    <edge id=":11271714854_3" function="internal">
        <lane id=":11271714854_3_0" index="0" allow="pedestrian delivery bicycle" speed="4.95" length="5.11" shape="291.07,1064.71 289.78,1064.12 289.03,1063.27 288.82,1062.15 289.15,1060.77"/>
    </edge>
    <edge id=":11271714854_4" function="internal">
        <lane id=":11271714854_4_0" index="0" disallow="tram rail_urban rail rail_electric rail_fast ship" speed="13.89" length="9.43" shape="291.07,1064.71 282.03,1062.05"/>
    </edge>
    <edge id=":11271714854_5" function="internal">
        <lane id=":11271714854_5_0" index="0" disallow="tram rail_urban rail rail_electric rail_fast ship" speed="13.89" length="9.43" shape="281.12,1065.12 290.16,1067.78"/>
    </edge>
    <edge id=":11271714854_6" function="internal">
        <lane id=":11271714854_6_0" index="0" allow="pedestrian delivery bicycle" speed="7.11" length="3.09" shape="281.12,1065.12 283.74,1065.47 284.17,1065.35"/>
    </edge>
    <edge id=":11271714854_7" function="internal">
        <lane id=":11271714854_7_0" index="0" allow="pedestrian delivery bicycle" speed="7.11" length="7.12" shape="284.17,1065.35 285.95,1064.86 287.75,1063.29 289.15,1060.77"/>
    </edge>
    <edge id=":11271714855_0" function="internal">
        <lane id=":11271714855_0_0" index="0" allow="pedestrian delivery bicycle" speed="3.65" length="4.67" shape="297.43,1040.04 297.13,1038.63 296.53,1037.96 295.64,1038.04 294.45,1038.86"/>
    </edge>
    <edge id=":11271714859_0" function="internal">
        <lane id=":11271714859_0_0" index="0" allow="pedestrian delivery bicycle" speed="3.65" length="4.67" shape="367.05,1037.30 367.72,1038.58 368.47,1039.06 369.31,1038.75 370.23,1037.64"/>
    </edge>
    <edge id=":11271714861_0" function="internal">
        <lane id=":11271714861_0_0" index="0" allow="pedestrian delivery bicycle" speed="5.02" length="5.02" shape="328.47,957.28 327.09,957.30 326.04,956.87 325.32,956.00 324.94,954.67"/>
    </edge>
    <edge id=":11271714861_1" function="internal">
        <lane id=":11271714861_1_0" index="0" allow="pedestrian delivery bicycle" speed="6.91" length="10.17" shape="328.47,957.28 325.79,958.10 324.00,959.57 323.10,961.68 323.08,964.43"/>
    </edge>
    <edge id=":11271714861_2" function="internal">
        <lane id=":11271714861_2_0" index="0" allow="pedestrian delivery bicycle" speed="3.65" length="4.67" shape="328.47,957.28 327.41,958.26 327.14,959.11 327.66,959.84 328.97,960.44"/>
    </edge>
    <edge id=":11271714861_3" function="internal">
        <lane id=":11271714861_3_0" index="0" allow="pedestrian delivery bicycle" speed="5.10" length="5.07" shape="326.25,963.98 326.26,962.62 326.72,961.58 327.62,960.85 328.97,960.44"/>
    </edge>
    <edge id=":11271714861_4" function="internal">
        <lane id=":11271714861_4_0" index="0" disallow="tram rail_urban rail rail_electric rail_fast ship" speed="13.89" length="9.40" shape="326.25,963.98 324.94,954.67"/>
    </edge>
    <edge id=":11271714861_5" function="internal">
        <lane id=":11271714861_5_0" index="0" disallow="tram rail_urban rail rail_electric rail_fast ship" speed="13.89" length="9.40" shape="321.77,955.12 323.08,964.43"/>
    </edge>
    <edge id=":11271714861_6" function="internal">
        <lane id=":11271714861_6_0" index="0" allow="pedestrian delivery bicycle" speed="6.85" length="3.28" shape="321.77,955.12 322.56,957.83 322.85,958.18"/>
    </edge>
    <edge id=":11271714861_7" function="internal">
        <lane id=":11271714861_7_0" index="0" allow="pedestrian delivery bicycle" speed="6.85" length="6.97" shape="322.85,958.18 324.02,959.61 326.16,960.48 328.97,960.44"/>
    </edge>
    <edge id=":11271769077_0" function="internal">
        <lane id=":11271769077_0_0" index="0" allow="pedestrian delivery bicycle" speed="5.06" length="5.02" shape="863.28,1388.61 861.90,1388.62 860.84,1388.19 860.11,1387.32 859.71,1386.02"/>
    </edge>
    <edge id=":11271769077_1" function="internal">
        <lane id=":11271769077_1_0" index="0" allow="pedestrian delivery bicycle" speed="6.86" length="10.18" shape="863.28,1388.61 860.60,1389.41 858.83,1390.87 857.96,1393.00 857.99,1395.80"/>
    </edge>
    <edge id=":11271769077_2" function="internal">
        <lane id=":11271769077_2_0" index="0" allow="pedestrian delivery bicycle" speed="3.65" length="4.67" shape="863.28,1388.61 862.21,1389.58 861.93,1390.43 862.45,1391.16 863.75,1391.77"/>
    </edge>
    <edge id=":11271769077_3" function="internal">
        <lane id=":11271769077_3_0" index="0" allow="pedestrian delivery bicycle" speed="5.04" length="5.01" shape="861.15,1395.31 861.14,1393.93 861.56,1392.89 862.44,1392.17 863.75,1391.77"/>
    </edge>
    <edge id=":11271769077_4" function="internal">
        <lane id=":11271769077_4_0" index="0" disallow="tram rail_urban rail rail_electric rail_fast ship" speed="13.89" length="9.40" shape="861.15,1395.31 859.71,1386.02"/>
    </edge>
    <edge id=":11271769077_5" function="internal">
        <lane id=":11271769077_5_0" index="0" disallow="tram rail_urban rail rail_electric rail_fast ship" speed="13.89" length="9.40" shape="856.55,1386.51 857.99,1395.80"/>
    </edge>
    <edge id=":11271769077_6" function="internal">
        <lane id=":11271769077_6_0" index="0" allow="pedestrian delivery bicycle" speed="6.87" length="3.26" shape="856.55,1386.51 857.36,1389.16 857.67,1389.53"/>
    </edge>
    <edge id=":11271769077_7" function="internal">
        <lane id=":11271769077_7_0" index="0" allow="pedestrian delivery bicycle" speed="6.87" length="6.91" shape="857.67,1389.53 858.83,1390.92 860.96,1391.79 863.75,1391.77"/>
    </edge>
    <edge id=":11271769078_0" function="internal">
        <lane id=":11271769078_0_0" index="0" allow="pedestrian delivery bicycle" speed="3.65" length="4.67" shape="903.91,1385.75 904.98,1384.78 905.25,1383.93 904.74,1383.20 903.43,1382.59"/>
    </edge>
    <edge id=":11271769079_0" function="internal">
        <lane id=":11271769079_0_0" index="0" disallow="tram rail_urban rail rail_electric rail_fast ship" speed="13.89" length="5.00" shape="867.56,1436.61 866.79,1431.67"/>
    </edge>
    <edge id=":11271769079_1" function="internal">
        <lane id=":11271769079_1_0" index="0" disallow="tram rail_urban rail rail_electric rail_fast ship" speed="13.89" length="5.00" shape="863.63,1432.16 864.40,1437.10"/>
    </edge>
    <edge id=":11271769081_0" function="internal">
        <lane id=":11271769081_0_0" index="0" disallow="tram rail_urban rail rail_electric rail_fast ship" speed="13.89" length="5.00" shape="848.03,1308.03 847.27,1303.09"/>
    </edge>
    <edge id=":11271769081_1" function="internal">
        <lane id=":11271769081_1_0" index="0" disallow="tram rail_urban rail rail_electric rail_fast ship" speed="13.89" length="5.00" shape="844.10,1303.58 844.87,1308.52"/>
    </edge>
    <edge id=":11271769085_0" function="internal">
        <lane id=":11271769085_0_0" index="0" allow="pedestrian delivery bicycle" speed="3.65" length="4.67" shape="899.95,1282.61 900.91,1283.69 901.75,1283.97 902.49,1283.47 903.11,1282.17"/>
    </edge>
    <edge id=":11271769087_0" function="internal">
        <lane id=":11271769087_0_0" index="0" allow="pedestrian delivery bicycle" speed="3.65" length="4.67" shape="906.28,1562.08 907.42,1561.19 907.76,1560.36 907.30,1559.59 906.04,1558.88"/>
    </edge>
    <edge id=":11271769088_0" function="internal">
        <lane id=":11271769088_0_0" index="0" allow="pedestrian delivery bicycle" speed="5.56" length="5.00" shape="894.18,1559.75 889.19,1560.11"/>
    </edge>
    <edge id=":11271769088_1" function="internal">
        <lane id=":11271769088_1_0" index="0" allow="pedestrian delivery bicycle" speed="3.65" length="4.67" shape="894.18,1559.75 893.04,1560.64 892.70,1561.46 893.16,1562.23 894.41,1562.94"/>
    </edge>
    <edge id=":11271769088_2" function="internal">
        <lane id=":11271769088_2_0" index="0" allow="pedestrian delivery bicycle" speed="5.56" length="5.00" shape="889.42,1563.31 894.41,1562.94"/>
    </edge>
    <edge id=":11271769088_3" function="internal">
        <lane id=":11271769088_3_0" index="0" allow="pedestrian delivery bicycle" speed="3.65" length="4.67" shape="889.42,1563.31 890.56,1562.42 890.90,1561.59 890.45,1560.83 889.19,1560.11"/>
    </edge>
    <edge id=":11271789577_0" function="internal">
        <lane id=":11271789577_0_0" index="0" allow="pedestrian delivery bicycle" speed="3.65" length="4.67" shape="403.20,943.55 402.05,944.41 401.70,945.23 402.14,946.01 403.38,946.74"/>
    </edge>
    <edge id=":11271789579_0" function="internal">
        <lane id=":11271789579_0_0" index="0" allow="pedestrian delivery bicycle" speed="3.65" length="4.67" shape="414.50,969.58 413.39,970.49 413.07,971.33 413.54,972.09 414.81,972.77"/>
    </edge>
    <edge id=":11271789589_0" function="internal">
        <lane id=":11271789589_0_0" index="0" disallow="tram rail_urban rail rail_electric rail_fast ship" speed="13.89" length="5.55" shape="368.58,1142.27 368.68,1143.87 368.45,1144.97 368.06,1146.07 367.66,1147.67"/>
    </edge>
    <edge id=":11271789589_1" function="internal">
        <lane id=":11271789589_1_0" index="0" disallow="tram rail_urban rail rail_electric rail_fast ship" speed="13.89" length="5.50" shape="370.81,1148.22 371.75,1142.81"/>
    </edge>
    <edge id=":11271789594_0" function="internal">
        <lane id=":11271789594_0_0" index="0" disallow="tram rail_urban rail rail_electric rail_fast ship" speed="13.89" length="5.19" shape="473.96,1250.22 468.81,1249.56"/>
        <lane id=":11271789594_0_1" index="1" disallow="tram rail_urban rail rail_electric rail_fast ship" speed="13.89" length="5.19" shape="473.55,1253.40 468.40,1252.73"/>
    </edge>
    <edge id=":1323874468_0" function="internal">
        <lane id=":1323874468_0_0" index="0" disallow="tram rail_urban rail rail_electric rail_fast ship" speed="27.78" length="5.72" shape="653.21,1405.01 652.30,1399.31"/>
        <lane id=":1323874468_0_1" index="1" disallow="tram rail_urban rail rail_electric rail_fast ship" speed="27.78" length="5.72" shape="650.05,1405.50 649.15,1399.89"/>
    </edge>
    <edge id=":1323874468_2" function="internal">