<configuration>
	<input>
		<net-file value="net.net.xml"/>
		<route-files value="trips.trips.xml"/>
	</input>

	<processing>
		<carfollow.model value="Krauss"/>
		<ignore-route-errors value="true"/>
	</processing>
</configuration>
